Version 4
SHEET 1 1384 680
WIRE 1104 64 624 64
WIRE 1312 64 1248 64
WIRE 1184 80 1104 64
WIRE 1312 96 1312 80
WIRE 1312 96 1184 96
WIRE 144 112 80 112
WIRE 176 112 144 112
WIRE 256 112 240 112
WIRE 352 112 256 112
WIRE 368 112 352 112
WIRE 592 112 448 112
WIRE 624 112 624 64
WIRE 624 112 592 112
WIRE 688 112 624 112
WIRE 736 112 704 112
WIRE 944 112 784 112
WIRE 1072 112 1184 48
WIRE 1072 112 944 112
WIRE 1120 112 1072 112
WIRE 944 144 944 112
WIRE 352 160 352 112
WIRE 256 176 256 112
WIRE 592 192 592 112
WIRE 144 208 144 112
WIRE 352 208 352 176
WIRE 944 240 944 208
WIRE 1072 256 1072 112
WIRE 304 272 304 240
WIRE 352 272 352 256
WIRE 352 272 304 272
WIRE 544 272 352 272
WIRE 592 272 592 240
WIRE 352 320 352 272
WIRE 544 320 544 272
WIRE 768 320 768 160
WIRE 768 320 544 320
WIRE 896 320 768 320
WIRE 944 320 944 288
WIRE 144 400 144 272
WIRE 256 400 256 240
WIRE 256 400 144 400
WIRE 352 400 256 400
WIRE 528 400 352 400
WIRE 592 400 592 288
WIRE 592 400 528 400
WIRE 944 400 944 368
WIRE 944 400 592 400
WIRE 1072 400 1072 320
WIRE 1072 400 944 400
WIRE 528 464 528 400
WIRE 0 0 0 0
FLAG 528 464 0
SYMBOL cap 80 96 R90
WINDOW 0 0 32 VBottom 2
WINDOW 3 32 32 VTop 2
SYMATTR InstName C1
SYMBOL diode 176 128 R270
WINDOW 0 32 32 VTop 2
WINDOW 3 0 32 VBottom 2
SYMATTR InstName D1
SYMBOL diode 160 272 R180
WINDOW 0 24 64 Left 2
WINDOW 3 24 0 Left 2
SYMATTR InstName D2
SYMBOL res 464 96 R90
WINDOW 0 0 56 VBottom 2
WINDOW 3 32 56 VTop 2
SYMATTR InstName R1
SYMBOL pmos4 304 160 R0
SYMATTR InstName M1
SYMBOL res 336 304 R0
SYMATTR InstName R2
SYMBOL cap 240 176 R0
SYMATTR InstName C2
SYMBOL nmos4 544 192 R0
SYMATTR InstName M2
SYMBOL pmos4 688 160 R270
SYMATTR InstName M3
SYMBOL nmos4 896 240 R0
SYMATTR InstName M4
SYMBOL cap 928 144 R0
SYMATTR InstName C3
SYMBOL cap 1056 256 R0
SYMATTR InstName C4
SYMBOL Opamps\\OP284 976 288 R0
SYMATTR InstName U1
SYMBOL Digital\\diffschmtbuf 1184 0 R0
SYMATTR InstName A1
SYMBOL Digital\\buf1 1312 0 R0
SYMATTR InstName A2
